
**** 04/03/24 21:20:54 ******* PSpice Lite (March 2016) ******* ID# 10813 ****

 ** Profile: "SCHEMATIC1-NPNBJT2"  [ C:\Cadence\MjProj\NPNBJT2-PSpiceFiles\SCHEMATIC1\NPNBJT2.sim ] 


 ****     CIRCUIT DESCRIPTION


******************************************************************************




** Creating circuit file "NPNBJT2.cir" 
** WARNING: THIS AUTOMATICALLY GENERATED FILE MAY BE OVERWRITTEN BY SUBSEQUENT SIMULATIONS

*Libraries: 
* Profile Libraries :
* Local Libraries :
* From [PSPICE NETLIST] section of C:\Users\myhom\AppData\Roaming\SPB_Data\cdssetup\OrCAD_PSpice\17.2.0\PSpice.ini file:
.lib "nomd.lib" 

*Analysis directives: 
.DC LIN V_VBB 0 5 0.1 
.STEP LIN V_VBB 0 5 0.1 
.OPTIONS ADVCONV
.PROBE64 V(alias(*)) I(alias(*)) W(alias(*)) D(alias(*)) NOISE(alias(*)) 
.INC "..\SCHEMATIC1.net" 



**** INCLUDING SCHEMATIC1.net ****
* source NPNBJT2
V_VCE         N00503 0 4V
Q_Q1         N00503 VB 0 Q2N3904
V_VBB         N00565 0 2V
R_RB         N00565 VB  100k TC=0,0 
.PARAM  vbb=1

**** RESUMING NPNBJT2.cir ****
.END


ERROR(ORPSIM-15051): A device may appear in .DC and .STEP commands only once
